Circuit: * C:\Users\tom\code\pybamm_pnm\run_scripts\jellyroll.cir

Direct Newton iteration for .op point succeeded.

Date: Wed Jan 05 14:15:06 2022
Total elapsed time: 0.050 seconds.

tnom = 27
temp = 27
method = trap
totiter = 3
traniter = 0
tranpoints = 0
accept = 0
rejected = 0
matrix size = 51
fillins = 88
solver = Normal
Matrix Compiler1: 6.60 KB object code size
Matrix Compiler2: 5.20 KB object code size
